LTspice 26.0.2 for Windows
Circuit: Z:\home\andrea\Progetti\QuantumDriver\Sim\QuantumDriver.net
Start Time: Sat Jun  6 10:06:28 2026
solver = Normal
Maximum thread count: 8
tnom = 27
temp = 27
method = trap
Direct Newton iteration succeeded in finding operating point.

Simulation stopped by user.
Total elapsed time: 138.509 seconds.

Files loaded:
Z:\home\andrea\Progetti\QuantumDriver\Sim\QuantumDriver.net
C:\users\andrea\AppData\Local\LTspice\lib\cmp\standard.dio
C:\users\andrea\AppData\Local\LTspice\lib\cmp\standard.bjt
C:\users\andrea\AppData\Local\LTspice\lib\cmp\standard.mos
C:\users\andrea\AppData\Local\LTspice\lib\sub\ADA4891-1.lib

